modela sistema eletrico/bdgd_to_opendss/cenario_2/001002/run_clean.dss
New Object = Circuit.001002_Barra_Slack
~ basekv = 13.8 pu = 1.029 angle = 0
New line.001002001002 phases = 3 bus1 = SourceBus bus2 = 59904185827576240MT.1.2.3 switch = y

New linecode.16512325H-3_linecode_media nphases=3 BaseFreq=60
~ r1=0.0006129999999999999
~ x1=0.00033
~ c1=0
~ Normamps=235.0
~ Emergamps=329.0

New linecode.16512325H-3P_linecode_media nphases=3 BaseFreq=60
~ r1=0.0006129999999999999
~ x1=0.00033
~ c1=0
~ Normamps=235.0
~ Emergamps=329.0

New linecode.16512328H-3_linecode_media nphases=3 BaseFreq=60
~ r1=0.000306
~ x1=0.00038500000000000003
~ c1=0
~ Normamps=365.0
~ Emergamps=511.0

New linecode.16512329H-3_linecode_media nphases=3 BaseFreq=60
~ r1=0.000975
~ x1=0.000347
~ c1=0
~ Normamps=175.0
~ Emergamps=245.0

New linecode.16512329H-3P_linecode_media nphases=3 BaseFreq=60
~ r1=0.000975
~ x1=0.000347
~ c1=0
~ Normamps=175.0
~ Emergamps=245.0

New linecode.16512375H-3_linecode_media nphases=3 BaseFreq=60
~ r1=0.000195
~ x1=0.00029099999999999997
~ c1=0
~ Normamps=495.0
~ Emergamps=693.0

New linecode.5281622H-3P_linecode_media nphases=3 BaseFreq=60
~ r1=0.00131
~ x1=0.00041
~ c1=0
~ Normamps=68.0
~ Emergamps=68.0

New linecode.5281627C-3_linecode_media nphases=3 BaseFreq=60
~ r1=0.000992
~ x1=0.00011700000000000001
~ c1=0
~ Normamps=70.0
~ Emergamps=70.0

New linecode.5281627C-3P_linecode_media nphases=3 BaseFreq=60
~ r1=0.000992
~ x1=0.00011700000000000001
~ c1=0
~ Normamps=70.0
~ Emergamps=70.0

New linecode.5281628C-3_linecode_media nphases=3 BaseFreq=60
~ r1=0.000247
~ x1=0.000259
~ c1=0
~ Normamps=291.0
~ Emergamps=291.0

New linecode.5281631C-3_linecode_media nphases=3 BaseFreq=60
~ r1=0.000739
~ x1=0.000303
~ c1=0
~ Normamps=152.0
~ Emergamps=181.0

New linecode.5281632C-3_linecode_media nphases=3 BaseFreq=60
~ r1=0.00019700000000000002
~ x1=0.000251
~ c1=0
~ Normamps=368.0
~ Emergamps=400.0

New Capacitor.34559319_Banco_de_Capacitor Bus1 = 59715864827499662MT.1.3 kv = 13.800 kVAR = 17 phases = 2 conn = wye

New line.1207380_Chave_seccionadora_media_tensao phases = 3 bus1 = 0011207356.1.2.3 bus2 = 0011207380.1.2.3 switch = F

New line.1207364_Chave_seccionadora_media_tensao phases = 3 bus1 = 0011207380.1.2.3 bus2 = 59904185827576240MT.1.2.3 switch = F

New line.1207356_Chave_seccionadora_media_tensao phases = 3 bus1 = 0015329860.1.2.3 bus2 = 0011207356.1.2.3 switch = F

New line.64751776_Chave_seccionadora_media_tensao phases = 3 bus1 = 59697771827497267MT.1.2.3 bus2 = 59697846827497137MT.1.2.3 switch = A

New line.64751782_Chave_seccionadora_media_tensao phases = 3 bus1 = 59698096827486174MT.1.2.3 bus2 = 59698241827486136MT.1.2.3 switch = F

New line.64751787_Chave_seccionadora_media_tensao phases = 3 bus1 = 59700191827495940MT.1.2.3 bus2 = 59700043827495918MT.1.2.3 switch = F

New line.64751777_Chave_seccionadora_media_tensao phases = 3 bus1 = 59701222827497197MT.1.2.3 bus2 = 59701366827497241MT.1.2.3 switch = A

New line.34651280CT_Chave_seccionadora_media_tensao phases = 3 bus1 = 59701570827496361MT.1.2.3 bus2 = 59701570827496361ET.1.2.3 switch = F

New line.64740228_Chave_seccionadora_media_tensao phases = 3 bus1 = 59702941827496796MT.1.2.3 bus2 = 59702961827496647MT.1.2.3 switch = F

New line.34657845CT_Chave_seccionadora_media_tensao phases = 3 bus1 = 59703356827489595MT.1.2.3 bus2 = 34657845CTISSO.1.2.3 switch = F

New line.34654153CT_Chave_seccionadora_media_tensao phases = 3 bus1 = 59703356827489595MT.1.2.3 bus2 = 59703356827489595ET.1.2.3 switch = F

New line.34777087CT_Chave_seccionadora_media_tensao phases = 3 bus1 = 59703359827490448MT.1.2.3 bus2 = 59703359827490448ET.1.2.3 switch = F

New line.64751779_Chave_seccionadora_media_tensao phases = 3 bus1 = 59706391827497749MT.1.2.3 bus2 = 59706246827497709MT.1.2.3 switch = F

New line.34751065CT_Chave_seccionadora_media_tensao phases = 3 bus1 = 59717044827507973MT.1.2.3 bus2 = 59717044827507973ET.1.2.3 switch = F

New line.34703388CT_Chave_seccionadora_media_tensao phases = 3 bus1 = 59719266827500348MT.1.2.3 bus2 = 59719266827500348ET.1.2.3 switch = F

New line.64706477_Chave_seccionadora_media_tensao phases = 3 bus1 = 59720261827512231MT.1.2.3 bus2 = 59720126827512166MT.1.2.3 switch = F

New line.64751789_Chave_seccionadora_media_tensao phases = 3 bus1 = 59722491827509448MT.1.2.3 bus2 = 59722400827509568MT.1.2.3 switch = F

New line.64751788_Chave_seccionadora_media_tensao phases = 3 bus1 = 59722849827524612MT.1.2.3 bus2 = 59722949827524724MT.1.2.3 switch = F

New line.34651815CT_Chave_seccionadora_media_tensao phases = 3 bus1 = 59727738827508523MT.1.2.3 bus2 = 59727738827508523ET.1.2.3 switch = F

New line.64751783_Chave_seccionadora_media_tensao phases = 3 bus1 = 59727890827527241MT.1.2.3 bus2 = 59728039827527220MT.1.2.3 switch = F

New line.64751778_Chave_seccionadora_media_tensao phases = 3 bus1 = 59729567827500575MT.1.2.3 bus2 = 59729601827500429MT.1.2.3 switch = F

New line.34629110CT_Chave_seccionadora_media_tensao phases = 3 bus1 = 59729925827494859MT.1.2.3 bus2 = 59729925827494859ET.1.2.3 switch = F

New line.34776848CT_Chave_seccionadora_media_tensao phases = 3 bus1 = 59730301827533163MT.1.2.3 bus2 = 59730301827533163ET.1.2.3 switch = F

New line.64659096_Chave_seccionadora_media_tensao phases = 3 bus1 = 59730480827496687MT.1.2.3 bus2 = 59730331827496674MT.1.2.3 switch = F

New line.34596085CT_Chave_seccionadora_media_tensao phases = 3 bus1 = 59731582827487733MT.1.2.3 bus2 = 59731582827487733ET.1.2.3 switch = F

New line.34741744CT_Chave_seccionadora_media_tensao phases = 3 bus1 = 59731663827491823MT.1.2.3 bus2 = 59731663827491823ET.1.2.3 switch = F

New line.64670655_Chave_seccionadora_media_tensao phases = 3 bus1 = 59732313827488050MT.1.2.3 bus2 = 59732175827487990MT.1.2.3 switch = F

New line.34674947CT_Chave_seccionadora_media_tensao phases = 3 bus1 = 59734623827537869MT.1.2.3 bus2 = 59734623827537869ET.1.2.3 switch = F

New line.34792559CT_Chave_seccionadora_media_tensao phases = 3 bus1 = 59735151827538412MT.1.2.3 bus2 = 59735151827538412ET.1.2.3 switch = F

New line.64751774_Chave_seccionadora_media_tensao phases = 3 bus1 = 59735238827518212MT.1.2.3 bus2 = 59735197827518356MT.1.2.3 switch = A

New line.34781158CT_Chave_seccionadora_media_tensao phases = 3 bus1 = 59736722827514801MT.1.2.3 bus2 = 59736722827514801ET.1.2.3 switch = F

New line.64751780_Chave_seccionadora_media_tensao phases = 3 bus1 = 59740044827506873MT.1.2.3 bus2 = 59739989827507012MT.1.2.3 switch = F

New line.64751772_Chave_seccionadora_media_tensao phases = 3 bus1 = 59742045827497910MT.1.2.3 bus2 = 59742136827497791MT.1.2.3 switch = A

New line.34630183CT_Chave_seccionadora_media_tensao phases = 3 bus1 = 59742062827514965MT.1.2.3 bus2 = 59742062827514965ET.1.2.3 switch = F

New line.64675825_Chave_seccionadora_media_tensao phases = 3 bus1 = 59742187827499767MT.1.2.3 bus2 = 59742318827499839MT.1.2.3 switch = F

New line.64751694_Chave_seccionadora_media_tensao phases = 3 bus1 = 59742447827497945MT.1.2.3 bus2 = 59742475827497987MT.1.2.3 switch = A

New line.64751786_Chave_seccionadora_media_tensao phases = 3 bus1 = 59742494827498243MT.1.2.3 bus2 = 59742534827498162MT.1.2.3 switch = F

New line.34705891CT_Chave_seccionadora_media_tensao phases = 3 bus1 = 59745769827505002MT.1.2.3 bus2 = 59745769827505002ET.1.2.3 switch = F

New line.34769157CT_Chave_seccionadora_media_tensao phases = 3 bus1 = 59748187827521019MT.1.2.3 bus2 = 59748187827521019ET.1.2.3 switch = F

New line.64670654_Chave_seccionadora_media_tensao phases = 3 bus1 = 59749174827521391MT.1.2.3 bus2 = 59749034827521338MT.1.2.3 switch = F

New line.34704132CT_Chave_seccionadora_media_tensao phases = 3 bus1 = 59749735827519790MT.1.2.3 bus2 = 59749735827519790ET.1.2.3 switch = F

New line.34755506CT_Chave_seccionadora_media_tensao phases = 3 bus1 = 59752471827512776MT.1.2.3 bus2 = 59752471827512776ET.1.2.3 switch = F

New line.34682101CT_Chave_seccionadora_media_tensao phases = 3 bus1 = 59752819827511918MT.1.2.3 bus2 = 59752819827511918ET.1.2.3 switch = F

New line.64698704_Chave_seccionadora_media_tensao phases = 3 bus1 = 59754027827509150MT.1.2.3 bus2 = 59753967827509287MT.1.2.3 switch = F

New line.34798802CT_Chave_seccionadora_media_tensao phases = 3 bus1 = 59755655827501175MT.1.2.3 bus2 = 59755655827501175ET.1.2.3 switch = F

New line.34804823CT_Chave_seccionadora_media_tensao phases = 3 bus1 = 59755961827506976MT.1.2.3 bus2 = 59755961827506976ET.1.2.3 switch = F

New line.34667192CT_Chave_seccionadora_media_tensao phases = 3 bus1 = 59756248827496437MT.1.2.3 bus2 = 59756248827496437ET.1.2.3 switch = F

New line.64659097_Chave_seccionadora_media_tensao phases = 3 bus1 = 59761056827501254MT.1.2.3 bus2 = 59760911827501215MT.1.2.3 switch = F

New line.34589241CT_Chave_seccionadora_media_tensao phases = 3 bus1 = 59762124827497594MT.1.2.3 bus2 = 59762124827497594ET.1.2.3 switch = F

New line.64740227_Chave_seccionadora_media_tensao phases = 3 bus1 = 59764196827509535MT.1.2.3 bus2 = 59764154827509679MT.1.2.3 switch = F

New line.34581371CT_Chave_seccionadora_media_tensao phases = 3 bus1 = 59765802827512445MT.1.2.3 bus2 = 59765802827512445ET.1.2.3 switch = F

New line.64709884_Chave_seccionadora_media_tensao phases = 3 bus1 = 59767765827510675MT.1.2.3 bus2 = 59767789827510527MT.1.2.3 switch = F

New line.34719405CT_Chave_seccionadora_media_tensao phases = 3 bus1 = 59769451827505176MT.1.2.3 bus2 = 59769451827505176ET.1.2.3 switch = F

New line.64751784_Chave_seccionadora_media_tensao phases = 3 bus1 = 59769638827516027MT.1.2.3 bus2 = 59769347827515904MT.1.2.3 switch = F

New line.64751771_Chave_seccionadora_media_tensao phases = 3 bus1 = 59769778827516435MT.1.2.3 bus2 = 59769637827516383MT.1.2.3 switch = A

New line.64751695_Chave_seccionadora_media_tensao phases = 3 bus1 = 59769788827516087MT.1.2.3 bus2 = 59769638827516027MT.1.2.3 switch = F

New line.64751785_Chave_seccionadora_media_tensao phases = 3 bus1 = 59769937827516071MT.1.2.3 bus2 = 59769788827516087MT.1.2.3 switch = F

New line.34621609CT_Chave_seccionadora_media_tensao phases = 3 bus1 = 59770391827514640MT.1.2.3 bus2 = 59770391827514640ET.1.2.3 switch = F

New line.64670653_Chave_seccionadora_media_tensao phases = 3 bus1 = 59771318827516500MT.1.2.3 bus2 = 59771251827516366MT.1.2.3 switch = F

New line.34676976CT_Chave_seccionadora_media_tensao phases = 3 bus1 = 59801075827527977MT.1.2.3 bus2 = 59801075827527977ET.1.2.3 switch = F

New line.34724002CT_Chave_seccionadora_media_tensao phases = 3 bus1 = 59806821827530244MT.1.2.3 bus2 = 59806821827530244ET.1.2.3 switch = F

New line.34719409CT_Chave_seccionadora_media_tensao phases = 3 bus1 = 59854681827548506MT.1.2.3 bus2 = 59854681827548506ET.1.2.3 switch = F

New line.64751781_Chave_seccionadora_media_tensao phases = 3 bus1 = 59872357827555249MT.1.2.3 bus2 = 59872218827555193MT.1.2.3 switch = F

New line.34760174CT_Chave_seccionadora_media_tensao phases = 3 bus1 = 59884204827574489MT.1.2.3 bus2 = 59884204827574489ET.1.2.3 switch = F

New line.34756002CT_Chave_seccionadora_media_tensao phases = 3 bus1 = 59902179827569261MT.1.2.3 bus2 = 59902179827569261ET.1.2.3 switch = F

New line.64709883_Chave_seccionadora_media_tensao phases = 3 bus1 = 59902819827568278MT.1.2.3 bus2 = 59902737827568404MT.1.2.3 switch = F

New line.1207372_Chave_seccionadora_media_tensao phases = 3 bus1 = 59904185827576240MT.1.2.3 bus2 = 0011207372.1.2.3 switch = A

New line.64751790_Chave_seccionadora_media_tensao phases = 3 bus1 = 59905479827569846MT.1.2.3 bus2 = 59905599827569756MT.1.2.3 switch = F

New Load.nome_00281f0880f43dc0e6e563d8d78da7f637b339e51cd95ba0765d07fc26707703_curva_diaria_RES-Tipo10_curva_anual_3.23_3.74_5.37_3.24_3.21_2.36_0.33_2.17_5.26_2.55_11.16_3.73_carga_baixa Bus1=59732440827502523BT.1.2.3 Phases=3
~ Conn=wye Model=1 Kv=0.22 Kw=1 pf=0.92

New Load.nome_003ef0e23e1670ef4b87bbd9d09dc8e8b8f687f6d306ad09db9898b4e5c972ea_curva_diaria_RES-Tipo5_curva_anual_2.94_2.99_4.03_2.07_1.63_2.1_0.4_1.44_3.68_2.36_5.15_5.7_carga_baixa Bus1=59753573827512655BT.1.2.3 Phases=3
~ Conn=wye Model=1 Kv=0.22 Kw=1 pf=0.92

New Load.nome_006abad3444da63826ef14ef3675d71bef4352223f7f62dc76f185905b1cdb85_curva_diaria_COM-Tipo2_curva_anual_0.0_0.0_0.0_0.0_0.0_0.0_0.0_0.0_0.0_0.0_0.0_0.0_carga_baixa Bus1=2502351IS.1.2.3 Phases=3
~ Conn=wye Model=1 Kv=0.22 Kw=1 pf=0.92

New Load.nome_006b6bf1e2e3eb43bf0575dbc308ce93cbff1e4cc64e435dc5f1390a86553ebd_curva_diaria_RES-Tipo2_curva_anual_0.0_0.0_0.0_0.0_0.0_0.0_0.0_0.0_0.0_0.0_0.0_0.0_carga_baixa Bus1=1572555IS.1.4 Phases=1
~ Conn=wye Model=1 Kv=0.127 Kw=1 pf=0.92

New Load.nome_00d8aa68399f1092cb09b56f2436473259e85f2b5056393aa3f04018092c4945_curva_diaria_RES-Tipo6_curva_anual_0.0_0.0_0.0_0.0_0.0_0.0_0.14_0.29_0.31_0.38_0.35_0.34_carga_baixa Bus1=59884474827574667BT.1.2 Phases=2
~ Conn=wye Model=1 Kv=0.22 Kw=1 pf=0.92

New Load.nome_0203a8486cc0c8e946feeaaf47642a896c700a2d5052cda00fb879b99befaf98_curva_diaria_RES-Tipo7_curva_anual_1.28_1.18_1.66_1.55_1.5_1.12_1.29_1.69_1.19_0.92_0.84_1.16_carga_baixa Bus1=59741911827514243BT.2.3 Phases=2
~ Conn=wye Model=1 Kv=0.22 Kw=1 pf=0.92

New Load.nome_020f6154c81fd3dcfac086357b64261e88cd25b28e59a6a46431a8bdef4ee0cd_curva_diaria_RES-Tipo1_curva_anual_0.39_0.47_0.54_0.42_0.43_0.38_0.38_0.34_0.35_0.44_0.38_0.32_carga_baixa Bus1=59728847827502077BT.1.2 Phases=2
~ Conn=wye Model=1 Kv=0.22 Kw=1 pf=0.92

New Load.nome_0360e7af54bc36436589a7cfe02146611493ecefcfdd3c59e093f02fdf0b0bc4_curva_diaria_COM-Tipo1_curva_anual_5.02_4.15_4.97_4.53_4.98_4.75_1.29_4.39_3.51_3.23_2.55_2.41_carga_baixa Bus1=59718436827500246BT.1.2.3 Phases=3
~ Conn=wye Model=1 Kv=0.22 Kw=1 pf=0.92

New Load.nome_043eeb5b8c6315885af8d0535d0db210f05e74711231d3dd92f6a1fa2e7627f6_curva_diaria_COM-Tipo3_curva_anual_19.83_15.43_17.78_16.81_14.36_9.99_14.92_20.86_24.02_29.34_25.33_23.19_carga_baixa Bus1=59701628827496320BT.1.2.3 Phases=3
~ Conn=wye Model=1 Kv=0.22 Kw=1 pf=0.92

New Load.nome_05355bc66a322dd8c60935d09022be01808a103f8b2a7cb42b861b5b2a69efc1_curva_diaria_RES-Tipo5_curva_anual_3.15_3.46_4.79_2.86_3.0_2.84_0.36_1.49_3.69_2.46_5.32_5.34_carga_baixa Bus1=59727942827507940BT.1.2.3 Phases=3
~ Conn=wye Model=1 Kv=0.22 Kw=1 pf=0.92

New Load.nome_05ef6413aa6fa63d347bc1f3bafd067efae692d16bcdb9fd15dc2f593ed2a159_curva_diaria_COM-Tipo1_curva_anual_1.5_1.05_1.2_0.99_1.03_0.8_1.06_1.76_1.6_1.39_0.42_0.16_carga_baixa Bus1=59858718827551246BT.1.2 Phases=2
~ Conn=wye Model=1 Kv=0.22 Kw=1 pf=0.92

New Load.nome_065f927f3b316a2cff1b49f6b792d651106f011b5c70eaf4bd0e1fdaa36d2ae6_curva_diaria_RES-Tipo2_curva_anual_0.0_0.0_0.0_0.0_0.0_0.0_0.0_0.0_0.0_0.0_0.0_0.0_carga_baixa Bus1=329546IS.1.2 Phases=2
~ Conn=wye Model=1 Kv=0.22 Kw=1 pf=0.92

New Load.nome_0691498f4aaa1e60a165f1d53bf5d1aa8ad269f7d8277d9487d1d489079667e5_curva_diaria_COM-Tipo4_curva_anual_0.37_0.29_0.46_0.67_0.77_0.57_0.69_0.7_0.5_0.79_1.43_1.41_carga_baixa Bus1=59737855827511303BT.1.2.3 Phases=3
~ Conn=wye Model=1 Kv=0.22 Kw=1 pf=0.92

New Load.nome_0725bf63cbf8cc5eb77376c0a96f95cdd4971807b972cfa61e83835e67143bda_curva_diaria_RES-Tipo7_curva_anual_0.56_0.47_0.51_0.25_0.18_0.24_0.37_0.45_0.79_0.86_0.54_0.54_carga_baixa Bus1=59895452827567972BT.1.2 Phases=2
~ Conn=wye Model=1 Kv=0.22 Kw=1 pf=0.92

New Load.nome_072a4052ae705dc47b351712c6b353fd67dc174f282b61f1a29fb57faacc2eaf_curva_diaria_RES-Tipo6_curva_anual_0.89_0.51_0.53_0.8_0.9_0.99_1.55_2.05_1.74_2.22_1.78_1.07_carga_baixa Bus1=59753433827512446BT.1.2.3 Phases=3
~ Conn=wye Model=1 Kv=0.22 Kw=1 pf=0.92

New Load.nome_073588c03560ef085b1452c67a87aefff20fd87c6a4980f73b488673a701ea00_curva_diaria_RES-Tipo1_curva_anual_1.07_0.88_1.08_0.92_0.93_0.73_0.8_0.93_1.13_1.45_1.2_1.18_carga_baixa Bus1=59837943827540587BT.1.2 Phases=2
~ Conn=wye Model=1 Kv=0.22 Kw=1 pf=0.92

New Load.nome_078003145064bcea643cdc21154aedd2b4812892cc398352b69b4e3eced4ebc0_curva_diaria_RES-Tipo10_curva_anual_0.0_0.0_0.0_0.0_0.0_0.0_0.0_0.0_0.0_0.91_1.18_1.01_carga_baixa Bus1=59881992827573750BT.1.4 Phases=1
~ Conn=wye Model=1 Kv=0.127 Kw=1 pf=0.92

New Load.nome_07cdf349c90dc4e275ff39307786e71308d28498b5094d95d59181dae6036e91_curva_diaria_COM-Tipo8_curva_anual_0.0_0.0_0.0_0.0_0.0_0.36_0.06_0.05_0.02_0.02_0.01_0.02_carga_baixa Bus1=59729986827486835BT.1.2 Phases=2
~ Conn=wye Model=1 Kv=0.22 Kw=1 pf=0.92

New Load.nome_07fdc726d13144cbfad776394b3a7382f334e650b3c9204843fb1ab45d9bc281_curva_diaria_RES-Tipo2_curva_anual_0.19_0.15_0.19_0.17_0.18_0.14_0.21_0.22_0.16_0.3_0.24_0.22_carga_baixa Bus1=59808419827531477BT.1.4 Phases=1
~ Conn=wye Model=1 Kv=0.127 Kw=1 pf=0.92

New Load.nome_088d1ea330cbb9815ff3ead10a8af908ca9532c1f078aeef4602cf9d39bc3d48_curva_diaria_RES-Tipo1_curva_anual_0.39_0.02_0.0_0.0_0.0_0.0_0.0_0.0_0.0_0.0_0.0_0.0_carga_baixa Bus1=59805928827529773BT.2.4 Phases=1
~ Conn=wye Model=1 Kv=0.127 Kw=1 pf=0.92

New Load.nome_08d3efc172fcab64bf666e15e3a4f7b506ec174e5e89d32a2bc1ef593ca34f3f_curva_diaria_RES-Tipo2_curva_anual_0.01_0.0_0.0_0.0_0.0_0.0_0.0_0.0_0.0_0.0_0.0_0.0_carga_baixa Bus1=59845656827541160BT.1.2 Phases=2
~ Conn=wye Model=1 Kv=0.22 Kw=1 pf=0.92

New Load.nome_091ab4587dae6eabcdd81ef8b2e03321d139def9f42bdcbf082c3975f34f4438_curva_diaria_COM-Tipo1_curva_anual_0.7_0.82_1.12_1.04_1.05_0.78_0.98_1.18_1.51_1.84_1.45_1.11_carga_baixa Bus1=59731948827488446BT.1.2 Phases=2
~ Conn=wye Model=1 Kv=0.22 Kw=1 pf=0.92

New Load.nome_09a6844e66a198c85239f772c1a5b3f19c9cdf004b286c5c4902d0e5c0c0e230_curva_diaria_COM-Tipo1_curva_anual_3.62_3.25_4.12_3.72_3.85_3.39_3.73_4.27_3.92_4.7_3.88_4.29_carga_baixa Bus1=59733114827511547BT.1.2.3 Phases=3
~ Conn=wye Model=1 Kv=0.22 Kw=1 pf=0.92

New Load.nome_09c42351410f9e8c3e5cb1b90af93804c94dd72595adb07a5f33e88298bdde75_curva_diaria_RES-Tipo4_curva_anual_0.11_0.14_0.19_0.16_0.16_0.14_0.16_0.29_0.28_0.29_0.24_0.15_carga_baixa Bus1=59718464827500704BT.1.2 Phases=2
~ Conn=wye Model=1 Kv=0.22 Kw=1 pf=0.92

New Load.nome_09de8f23421fb9816718b1df922d2ab48372ab5bf3c6c8417378f36501e490eb_curva_diaria_RES-Tipo8_curva_anual_0.0_0.0_0.0_0.0_0.0_0.0_0.08_0.11_0.0_0.0_0.0_0.0_carga_baixa Bus1=59731751827528810BT.1.3 Phases=2
~ Conn=wye Model=1 Kv=0.22 Kw=1 pf=0.92

New Load.nome_09fc59d1411a2da45d64d2fb711109c92490a897ef932f61a1b8b9871a883d14_curva_diaria_RES-Tipo1_curva_anual_0.0_0.0_0.0_0.0_0.0_0.0_0.28_0.79_0.41_0.0_0.0_0.0_carga_baixa Bus1=59881992827573750BT.1.4 Phases=1
~ Conn=wye Model=1 Kv=0.127 Kw=1 pf=0.92

New Load.nome_0a8baa9854f9c273f8156374b8fc00705cb9cfa3c7bb7d6874db4fba27fe5078_curva_diaria_IND-Tipo8_curva_anual_0.06_0.13_0.1_0.05_0.14_0.14_0.1_0.01_0.0_0.32_0.14_0.24_carga_baixa Bus1=59730726827486291BT.1.2 Phases=2
~ Conn=wye Model=1 Kv=0.22 Kw=1 pf=0.92

New Load.nome_0ad20220c37b8e0876bd31d6b74adb90bc8db09bb3b0e443fea666632f677d26_curva_diaria_RES-Tipo6_curva_anual_1.45_1.15_1.43_1.1_0.97_0.73_0.9_1.5_1.94_2.36_1.93_1.57_carga_baixa Bus1=59751486827512684BT.1.2.3 Phases=3
~ Conn=wye Model=1 Kv=0.22 Kw=1 pf=0.92

New Load.nome_0afb079edc355a748780a6a023c62f2ea2d21ded17eed9697a0cec96dd65afa8_curva_diaria_COM-Tipo1_curva_anual_0.68_0.62_0.84_0.81_0.57_0.48_0.68_1.21_1.78_1.46_0.97_1.22_carga_baixa Bus1=59729975827486988BT.1.2 Phases=2
~ Conn=wye Model=1 Kv=0.22 Kw=1 pf=0.92

New Load.nome_0b47e653be8410fb2b33d0b8f9724f62879bf7697f39d8f940baecc4be77b4ef_curva_diaria_RES-Tipo7_curva_anual_1.81_1.31_1.68_1.52_1.42_1.11_1.52_2.22_2.55_2.89_2.69_2.46_carga_baixa Bus1=59800294827528339BT.1.2 Phases=2
~ Conn=wye Model=1 Kv=0.22 Kw=1 pf=0.92

New Load.nome_0b873237874515e5d45204389d4ddb2cc0629f79d18c841c1ebef0ad0f49f640_curva_diaria_COM-Tipo2_curva_anual_1.76_1.44_1.85_1.77_1.67_1.3_1.82_2.68_2.85_3.36_2.89_2.66_carga_baixa Bus1=59737040827541513BT.2.3 Phases=2
~ Conn=wye Model=1 Kv=0.22 Kw=1 pf=0.92

New Load.nome_0bbc5e554dfff5b988456b8fb706dfc7091fa9f31b79376829ddcf55a5397e4b_curva_diaria_COM-Tipo1_curva_anual_3.12_2.52_3.03_2.54_2.66_2.15_2.33_3.39_3.57_4.37_4.24_3.96_carga_baixa Bus1=59885600827569254BT.1.2.3 Phases=3
~ Conn=wye Model=1 Kv=0.22 Kw=1 pf=0.92

New Load.nome_0c07dea853ae9eba254f44fc9c7465901b22811613ceffeb10b63e47ea8a02ac_curva_diaria_RES-Tipo1_curva_anual_0.72_0.58_0.75_0.66_0.82_0.8_0.86_0.46_0.62_1.03_0.83_0.44_carga_baixa Bus1=59883621827575821BT.1.2 Phases=2
~ Conn=wye Model=1 Kv=0.22 Kw=1 pf=0.92

New Load.nome_0c3b6c5584d0789980fa7517c0dcd9114c8f1a11dd41e0be513d9bb556cf186e_curva_diaria_RES-Tipo7_curva_anual_0.0_0.28_0.09_0.18_0.03_0.08_0.26_0.68_2.23_3.17_2.12_2.02_carga_baixa Bus1=59728127827509181BT.1.2.3 Phases=3
~ Conn=wye Model=1 Kv=0.22 Kw=1 pf=0.92

New Load.nome_0c9b432dcdcdf21672c351c4b1a24a51081fb7734f6c44f8a6b9f96264c768a7_curva_diaria_RES-Tipo8_curva_anual_0.56_0.43_0.46_0.24_0.54_0.36_0.48_0.55_0.92_1.83_1.61_1.12_carga_baixa Bus1=59839059827542521BT.1.2 Phases=2
~ Conn=wye Model=1 Kv=0.22 Kw=1 pf=0.92

New Load.nome_0d65d22d28f95c60b022f11d5b3f62e76ad2baed21227e67c185a4a37ed60ed6_curva_diaria_RES-Tipo1_curva_anual_1.27_1.43_1.94_1.86_1.32_0.96_1.18_1.65_1.53_2.05_1.97_1.45_carga_baixa Bus1=59727410827508702BT.1.2 Phases=2
~ Conn=wye Model=1 Kv=0.22 Kw=1 pf=0.92

New Load.nome_0de847af775019d1e568091e0251415fdf67275ae009852227778cecadea4433_curva_diaria_RES-Tipo2_curva_anual_0.0_0.0_0.0_0.0_0.0_0.0_0.0_0.0_0.0_0.0_0.0_0.0_carga_baixa Bus1=4348159IS.1.2 Phases=2
~ Conn=wye Model=1 Kv=0.22 Kw=1 pf=0.92

New Load.nome_0e9940d33a5909fb7ae4f187fe56056de5954aa7bf8d4f86250a28f73a30b4af_curva_diaria_SP-Tipo1_curva_anual_48.99_41.13_45.13_40.49_47.2_30.98_31.29_39.54_48.57_60.79_32.89_4.72_carga_baixa Bus1=59735883827513700BT.1.2.3 Phases=3
~ Conn=wye Model=1 Kv=0.22 Kw=1 pf=0.92

New Load.nome_0eda56a4c689d6eb4c8263df1b932f671ef6fd3ec713c5eacb09a9f1c1f43d0f_curva_diaria_COM-Tipo7_curva_anual_0.69_0.46_0.68_0.51_0.48_0.44_0.49_0.66_0.73_0.85_0.73_0.74_carga_baixa Bus1=59738086827510703BT.2.3 Phases=2
~ Conn=wye Model=1 Kv=0.22 Kw=1 pf=0.92

New Load.nome_0ee5c7c5802b315c0fbe3b36300164f7002517e67d65a4a34c0d0132bfd80b61_curva_diaria_COM-Tipo1_curva_anual_2.1_2.81_3.57_3.26_3.28_3.65_2.76_3.93_4.51_6.18_4.81_6.19_carga_baixa Bus1=59745377827506521BT.1.2.4 Phases=2
~ Conn=wye Model=1 Kv=0.22 Kw=1 pf=0.92

New Load.nome_0ef8589370826be257b69fd46848698f1fa3b97d8644ae6f684eb32ff23a30cd_curva_diaria_RES-Tipo1_curva_anual_0.8_0.62_0.8_0.74_0.73_0.6_0.81_1.28_1.46_1.56_1.3_1.05_carga_baixa Bus1=59732013827533292BT.1.2 Phases=2
~ Conn=wye Model=1 Kv=0.22 Kw=1 pf=0.92

New Load.nome_0f0fd72419b994ff06bb7ef4f66b9e1675f013c4ac87bf4cd8745190b17b33ba_curva_diaria_RES-Tipo2_curva_anual_0.4_0.31_0.39_0.41_0.39_0.28_0.31_0.32_0.12_0.09_0.04_0.11_carga_baixa Bus1=59794898827526944BT.1.4 Phases=1
~ Conn=wye Model=1 Kv=0.127 Kw=1 pf=0.92

New Load.nome_0f35853f2910d25ca5f4bd4e0d646568387f34a831e9fbc7d37aaec6052f78c4_curva_diaria_COM-Tipo6_curva_anual_1.03_0.99_1.05_1.01_1.23_1.21_1.52_1.85_1.77_2.87_2.21_2.01_carga_baixa Bus1=59729860827487215BT.1.2 Phases=2
~ Conn=wye Model=1 Kv=0.22 Kw=1 pf=0.92

New Load.nome_0f973d6bf3f1d28f632394bd51461ccec7b416fd58f4243473936908aa98be00_curva_diaria_RES-Tipo7_curva_anual_0.73_0.76_0.99_0.82_0.69_0.72_1.02_1.54_1.73_1.99_1.58_1.04_carga_baixa Bus1=59753573827512655BT.1.2.3 Phases=3
~ Conn=wye Model=1 Kv=0.22 Kw=1 pf=0.92

New Load.nome_0fa190d444596cdb0496313e4cd40cdb21b81bb7ef4220709a0496351cd2d17a_curva_diaria_RES-Tipo1_curva_anual_0.57_0.44_0.58_0.55_0.6_0.49_0.58_0.76_0.88_1.07_0.71_0.79_carga_baixa Bus1=59794498827527074BT.1.2.3 Phases=3
~ Conn=wye Model=1 Kv=0.22 Kw=1 pf=0.92

New Load.nome_104c1b791eee33b3845b0d866e0fd336dc70207f6f387db9067a693673e0b80e_curva_diaria_RES-Tipo3_curva_anual_0.97_0.79_0.95_0.8_0.82_0.59_0.79_1.01_1.07_1.19_1.0_1.03_carga_baixa Bus1=59845466827540291BT.1.2 Phases=2
~ Conn=wye Model=1 Kv=0.22 Kw=1 pf=0.92

New Load.nome_10c98a8f59556322e0b0602071018ca4b6368eff871d3fcb1cf94ab54ac95861_curva_diaria_RES-Tipo2_curva_anual_0.0_0.05_0.15_0.09_0.0_0.0_0.0_0.0_0.0_0.0_0.0_0.0_carga_baixa Bus1=59853956827548010BT.1.2 Phases=2
~ Conn=wye Model=1 Kv=0.22 Kw=1 pf=0.92

New Load.nome_10e0745d7af1c7ec1ab0a6360ed57707510e922746ee739e2d43c83d32a48973_curva_diaria_COM-Tipo2_curva_anual_0.0_0.0_0.0_0.0_0.0_0.0_0.0_0.0_0.0_0.0_0.0_0.0_carga_baixa Bus1=300554IS.1.2 Phases=2
~ Conn=wye Model=1 Kv=0.22 Kw=1 pf=0.92

New Load.nome_11cae158548da78f6b51cce3c71c09bdd4eba24cc69bbe38db7b4f72a43fb7a9_curva_diaria_COM-Tipo1_curva_anual_1.64_1.85_1.97_1.51_1.76_1.57_1.58_1.97_3.73_7.86_6.58_5.89_carga_baixa Bus1=59728007827502136BT.1.2 Phases=2
~ Conn=wye Model=1 Kv=0.22 Kw=1 pf=0.92

New Load.nome_1235ff4008dad944da004e21f137396b59465b6370291c32473b42537acf5c61_curva_diaria_RES-Tipo6_curva_anual_0.49_0.44_0.35_0.37_0.4_0.3_0.26_0.32_0.33_0.37_0.37_0.37_carga_baixa Bus1=59895370827568161BT.1.4 Phases=1
~ Conn=wye Model=1 Kv=0.127 Kw=1 pf=0.92

New Load.nome_12abda138e8262285e92ac31e14d9770f51922a275d79db8c7aa3caf8dc6784d_curva_diaria_RES-Tipo10_curva_anual_0.0_0.0_0.0_0.0_0.0_0.0_0.0_0.0_0.0_0.0_62.45_33.89_carga_baixa Bus1=59847903827546204BT.1.2.3 Phases=3
~ Conn=wye Model=1 Kv=0.22 Kw=1 pf=0.92

New Load.nome_12b64d7e901f1e668a417ebf9e033d857a6990051a4ac9b1b0b810d51470ada8_curva_diaria_RES-Tipo6_curva_anual_2.81_3.51_4.81_2.71_3.04_3.09_0.26_1.46_3.55_2.51_5.66_5.61_carga_baixa Bus1=59732326827492060BT.2.3 Phases=2
~ Conn=wye Model=1 Kv=0.22 Kw=1 pf=0.92

New Load.nome_12b9c32fd7b7756934e1891f91c9f3b01b769bdb94598be51ea8de816e668b00_curva_diaria_RES-Tipo6_curva_anual_0.0_0.01_0.01_0.0_0.05_0.1_0.05_0.12_0.2_0.21_0.0_0.0_carga_baixa Bus1=59845656827541160BT.1.2 Phases=2
~ Conn=wye Model=1 Kv=0.22 Kw=1 pf=0.92

New Load.nome_13577788f96eca27a1dde8cf6c1e55083a9955a6ec70c8182b5113f3d6c17b33_curva_diaria_RES-Tipo1_curva_anual_0.36_0.31_0.4_0.33_0.35_0.31_0.31_0.56_0.54_0.59_0.77_0.83_carga_baixa Bus1=59883965827571381BT.1.4 Phases=1
~ Conn=wye Model=1 Kv=0.127 Kw=1 pf=0.92

New Load.nome_135d6816c53bc4922b31ebfa0b1afddfed838f8167d13d5838de78479fcb0ebb_curva_diaria_COM-Tipo9_curva_anual_0.19_0.18_0.17_0.18_0.13_0.07_0.38_1.08_1.36_1.75_1.54_1.32_carga_baixa Bus1=59730655827486311BT.1.2 Phases=2
~ Conn=wye Model=1 Kv=0.22 Kw=1 pf=0.92

New Load.nome_13fcb5b429d85ec249a430c369305b8dc4be6b91e57bec679a225a2fa647d432_curva_diaria_RES-Tipo2_curva_anual_0.0_0.0_0.0_0.0_0.0_0.0_0.0_0.0_0.0_0.0_0.0_0.0_carga_baixa Bus1=856754IS.3.4 Phases=1
~ Conn=wye Model=1 Kv=0.127 Kw=1 pf=0.92

New Load.nome_13fdebd52d2636622db74f3bae4cd68c12dbb5747f1d00891be20d8e9aaaf9d8_curva_diaria_RES-Tipo1_curva_anual_0.82_0.67_0.84_0.66_0.6_0.56_0.75_0.96_0.96_1.56_1.95_1.61_carga_baixa Bus1=59863307827542266BT.1.2 Phases=2
~ Conn=wye Model=1 Kv=0.22 Kw=1 pf=0.92

New Load.nome_145f568daa023e9b525867f1d42adfe7c38618176cf0a9595e82b9f4959c2c60_curva_diaria_RES-Tipo1_curva_anual_0.28_0.34_0.38_0.36_0.39_0.37_0.4_0.48_0.4_0.44_0.38_0.4_carga_baixa Bus1=59730893827532966BT.1.2 Phases=2
~ Conn=wye Model=1 Kv=0.22 Kw=1 pf=0.92

New Load.nome_147338126fb3ebc45689af67a0e77c30edbae5a4f4ab7fb6c93e2a68bb5ee294_curva_diaria_RES-Tipo4_curva_anual_0.0_0.0_0.0_0.0_1.42_2.61_0.32_1.5_3.76_2.57_5.56_5.32_carga_baixa Bus1=59889594827575303BT.1.2 Phases=2
~ Conn=wye Model=1 Kv=0.22 Kw=1 pf=0.92

New Load.nome_1491eba3a276c9892d71ea18889ba1371ba5226bb929d26db61025a3f32f5474_curva_diaria_RES-Tipo8_curva_anual_0.65_0.41_0.0_0.0_0.13_0.06_0.08_0.11_0.12_0.14_0.11_0.12_carga_baixa Bus1=59731859827486359BT.1.2 Phases=2
~ Conn=wye Model=1 Kv=0.22 Kw=1 pf=0.92

New Load.nome_14f2fa2e7c0a2be1470eb5755e23dd72f6bbd8633e66f9761c24f98ba0cde6d7_curva_diaria_RES-Tipo1_curva_anual_0.9_0.93_1.17_1.14_1.0_0.68_0.89_1.24_1.53_1.99_1.7_1.43_carga_baixa Bus1=59746829827524347BT.1.3 Phases=2
~ Conn=wye Model=1 Kv=0.22 Kw=1 pf=0.92

New Load.nome_151a11e1c7fe53a8941df8961bf28b639a144916ab09ffa099c46a387d10e7d2_curva_diaria_COM-Tipo3_curva_anual_0.34_0.33_0.34_0.2_0.2_0.12_0.15_0.24_0.33_0.41_0.36_0.41_carga_baixa Bus1=59732163827487630BT.1.2 Phases=2
~ Conn=wye Model=1 Kv=0.22 Kw=1 pf=0.92

New Load.nome_1565c66015c39697ad4b4fc071eaa314e836bff3032add7b4d9c1c3caa361e8b_curva_diaria_RES-Tipo3_curva_anual_0.82_0.83_0.89_0.53_0.3_0.49_0.74_1.15_1.46_1.86_1.8_1.75_carga_baixa Bus1=59753528827512587BT.1.2.3 Phases=3
~ Conn=wye Model=1 Kv=0.22 Kw=1 pf=0.92

New Load.nome_157e6f328978ee7b5706835506ee176c5406c229f451aba25c71b28da335189d_curva_diaria_COM-Tipo1_curva_anual_0.0_0.0_0.0_0.0_0.0_0.0_0.0_0.0_0.0_0.0_0.0_0.0_carga_baixa Bus1=614667IS.1.2 Phases=2
~ Conn=wye Model=1 Kv=0.22 Kw=1 pf=0.92

New Load.nome_160e5fb3fc7f4e517f2d18ac30a7638c94401c0ddb357d7f264b496d9ff877ad_curva_diaria_COM-Tipo8_curva_anual_0.0_0.0_0.0_0.0_0.0_0.38_0.3_1.3_3.15_5.6_5.86_5.55_carga_baixa Bus1=59772052827498327BT.1.2.3 Phases=3
~ Conn=wye Model=1 Kv=0.22 Kw=1 pf=0.92

New Load.nome_162a5165a5862a35ff4f7b821a27d55b15b421aaadefb7a17d8283acdd705cde_curva_diaria_COM-Tipo1_curva_anual_2.17_1.75_2.12_1.82_1.71_1.38_1.73_2.37_2.62_3.06_2.61_2.7_carga_baixa Bus1=59753340827509237BT.1.2.3 Phases=3
~ Conn=wye Model=1 Kv=0.22 Kw=1 pf=0.92

New Load.nome_16a6b1b4934e30b8a3d5f52a956bc74b83054e09499effb260e0daa9b61015d9_curva_diaria_RES-Tipo1_curva_anual_1.32_1.11_1.3_1.22_1.29_1.03_1.14_1.56_2.15_2.99_2.45_2.39_carga_baixa Bus1=59747991827521025BT.1.2.3 Phases=3
~ Conn=wye Model=1 Kv=0.22 Kw=1 pf=0.92

New Load.nome_16b0b88d7e2377ce0a16d4e9948c043dd9f615bfe7e8d0282029aceab8e6182a_curva_diaria_COM-Tipo1_curva_anual_0.75_0.81_1.01_0.89_0.83_0.69_0.72_1.08_1.29_1.47_1.46_1.14_carga_baixa Bus1=59742277827504657BT.1.2.3 Phases=3
~ Conn=wye Model=1 Kv=0.22 Kw=1 pf=0.92

New Load.nome_17b023c6ae8b4e13572e80ac14f9431ae1f9ebf53659e7cf4e2cd61499b8144a_curva_diaria_RES-Tipo9_curva_anual_1.58_1.75_2.65_1.55_1.16_1.33_0.27_0.57_0.42_3.19_3.25_2.58_carga_baixa Bus1=59846972827541765BT.1.2 Phases=2
~ Conn=wye Model=1 Kv=0.22 Kw=1 pf=0.92

New Load.nome_17c4f985863c9cca10f48df0a55c8e3b7633d839ecb44d33a8df0290ea9e26dd_curva_diaria_RES-Tipo2_curva_anual_0.0_0.0_0.0_0.0_0.0_0.0_0.0_0.0_0.0_0.0_0.0_0.0_carga_baixa Bus1=2047101IS.1.3 Phases=2
~ Conn=wye Model=1 Kv=0.22 Kw=1 pf=0.92

New Load.nome_185fcecc3d9d921c1a894cd966f99c5407080fee43c97e653d5b128f9eab25b7_curva_diaria_RES-Tipo4_curva_anual_0.93_0.84_1.11_0.92_0.89_0.67_0.77_1.18_1.34_1.59_0.78_0.0_carga_baixa Bus1=59854588827547484BT.1.2 Phases=2
~ Conn=wye Model=1 Kv=0.22 Kw=1 pf=0.92

New Load.nome_18651806d4e43202b272aa2931359fa89adc1135ff4131b92d87d036e7705b85_curva_diaria_RES-Tipo2_curva_anual_0.0_0.0_0.0_0.0_0.0_0.0_0.0_0.0_0.0_0.0_0.0_0.0_carga_baixa Bus1=330477IS.1.2 Phases=2
~ Conn=wye Model=1 Kv=0.22 Kw=1 pf=0.92

New Load.nome_18ade19cb7d67d1d57b28632854d3f583141e9656ab1bdff929cf604708f9ff2_curva_diaria_RES-Tipo8_curva_anual_0.0_0.0_0.0_0.0_0.0_0.25_0.47_0.61_0.63_0.77_0.7_0.73_carga_baixa Bus1=59895423827567921BT.2.4 Phases=1
~ Conn=wye Model=1 Kv=0.127 Kw=1 pf=0.92

New Load.nome_18bb4eb0de6bb0a67db036e10efbad70324cec7f71d6da025febf226dd11d6de_curva_diaria_RES-Tipo8_curva_anual_1.19_0.55_0.17_1.18_0.9_0.72_0.77_0.88_1.13_1.3_1.28_1.29_carga_baixa Bus1=59743086827514814BT.1.2 Phases=2
~ Conn=wye Model=1 Kv=0.22 Kw=1 pf=0.92

New Load.nome_18e7cd22dc3b21c48ec5c27e090c63eb353d443c8faebdd8510bb358eec27550_curva_diaria_RES-Tipo3_curva_anual_0.4_0.7_1.2_1.19_1.21_0.94_0.76_0.61_0.72_0.91_0.69_0.51_carga_baixa Bus1=59753433827512446BT.1.2.3 Phases=3
~ Conn=wye Model=1 Kv=0.22 Kw=1 pf=0.92

New Load.nome_199f9e4990301cac0de7788f321ca9a325b2ba32f3f531c626a56656717a7914_curva_diaria_RES-Tipo10_curva_anual_1.9_1.55_1.88_1.64_1.83_1.43_1.65_2.43_2.58_2.96_1.95_3.28_carga_baixa Bus1=59753573827512655BT.1.2.3 Phases=3
~ Conn=wye Model=1 Kv=0.22 Kw=1 pf=0.92

New Load.nome_19c4cd5a8bfcf85e87a7f374e8bdcbacda8e5b5c1a2d1c6b7ace2270edc6773b_curva_diaria_RES-Tipo1_curva_anual_0.75_0.59_0.74_0.65_0.74_0.67_0.75_0.91_0.87_0.88_0.8_0.5_carga_baixa Bus1=59883930827571382BT.1.2 Phases=2
~ Conn=wye Model=1 Kv=0.22 Kw=1 pf=0.92

New Load.nome_19f2bbb9415f88b1c13b8207f8b35590f27a9b1dadf0f059e48c1b2fe52061b5_curva_diaria_RES-Tipo4_curva_anual_2.03_3.04_4.6_3.27_4.48_5.29_0.66_2.38_6.4_4.82_9.27_2.88_carga_baixa Bus1=59747985827521384BT.1.2.3 Phases=3
~ Conn=wye Model=1 Kv=0.22 Kw=1 pf=0.92

New Load.nome_19f92ceb8175d29890ed044556359713c796f805ba897703e2b4fb643b81287f_curva_diaria_RES-Tipo1_curva_anual_3.14_4.33_6.23_3.97_3.93_3.9_0.55_2.32_6.13_4.17_6.35_0.0_carga_baixa Bus1=59754421827502816BT.1.2.3 Phases=3
~ Conn=wye Model=1 Kv=0.22 Kw=1 pf=0.92

New Load.nome_1a19cf78bed53be3cb68dfb7dc8d6b9097a1ff3f6956ab230167c6028d70a326_curva_diaria_COM-Tipo1_curva_anual_0.91_0.75_0.9_0.86_0.86_0.7_0.93_1.25_1.39_1.62_1.34_1.27_carga_baixa Bus1=59728916827487885BT.1.2 Phases=2
~ Conn=wye Model=1 Kv=0.22 Kw=1 pf=0.92

New Load.nome_1a1b144e5211f7e69f236f88043519340295c76b07bf007cc4d6b8cff02772ee_curva_diaria_RES-Tipo1_curva_anual_1.21_0.95_1.23_1.14_1.21_0.94_1.01_1.47_1.59_1.91_1.69_1.52_carga_baixa Bus1=59895760827567459BT.1.3 Phases=2
~ Conn=wye Model=1 Kv=0.22 Kw=1 pf=0.92

New Load.nome_1a379c56d04b5d2978d5689d8b737f9fbd3ad8910a29db8fde81f84478e051d0_curva_diaria_RES-Tipo7_curva_anual_0.0_0.0_0.0_0.0_0.0_0.0_0.0_0.0_0.0_0.58_1.18_1.29_carga_baixa Bus1=59857766827542826BT.3.4 Phases=1
~ Conn=wye Model=1 Kv=0.127 Kw=1 pf=0.92

New Load.nome_1a556ab669c38bb7c4f574d3bba31de3e739eb777ff54b3c3451f0a9dd47feb3_curva_diaria_RES-Tipo1_curva_anual_1.04_0.84_1.01_0.96_0.9_0.83_1.13_1.75_1.51_1.93_1.51_0.59_carga_baixa Bus1=59794724827527360BT.1.4 Phases=1
~ Conn=wye Model=1 Kv=0.127 Kw=1 pf=0.92

New Load.nome_1ab26091101967d0e8c9c2e31b7716ea8d9915228b2c5688817bdf0f5d49c7be_curva_diaria_RES-Tipo3_curva_anual_0.14_0.11_0.14_0.12_0.13_0.11_0.13_0.17_0.16_0.2_0.27_0.24_carga_baixa Bus1=59753528827512587BT.1.2.3 Phases=3
~ Conn=wye Model=1 Kv=0.22 Kw=1 pf=0.92

New Load.nome_1c57529ae96a90ed8760ea47bb38b53e94eefbfb18c85ab2eea937127def5b42_curva_diaria_RES-Tipo1_curva_anual_1.91_1.2_1.42_1.26_1.12_0.9_0.96_0.6_0.95_0.0_0.0_0.0_carga_baixa Bus1=59731285827533828BT.1.2 Phases=2
~ Conn=wye Model=1 Kv=0.22 Kw=1 pf=0.92

New Load.nome_1cbddf8ff7f96a88c22a23786243b2a519789828cd0a7e669f0c596c9e020795_curva_diaria_COM-Tipo1_curva_anual_0.68_0.4_0.64_0.64_0.52_0.43_0.4_0.48_0.66_1.26_1.64_1.87_carga_baixa Bus1=59730009827486902BT.1.2 Phases=2
~ Conn=wye Model=1 Kv=0.22 Kw=1 pf=0.92

New Load.nome_1cfa812705a18933f85c4b4c0f933262d5d82cd0e33c316984727b72118c06cd_curva_diaria_RES-Tipo1_curva_anual_0.0_0.0_0.0_0.0_0.0_0.0_0.0_0.0_0.0_0.0_0.0_0.0_carga_baixa Bus1=300215IS.1.2.3 Phases=3
~ Conn=wye Model=1 Kv=0.22 Kw=1 pf=0.92

New Load.nome_1d475fea8d1702a6b2d172018adc7eda34fdbdbf659185e1353d6d813b829bfc_curva_diaria_RES-Tipo5_curva_anual_1.94_1.59_2.12_1.93_1.94_1.62_1.79_2.61_2.98_3.39_2.76_3.01_carga_baixa Bus1=59753573827512655BT.1.2.3 Phases=3
~ Conn=wye Model=1 Kv=0.22 Kw=1 pf=0.92

New Load.nome_1d5ee70530e9239a8f5996a68c27cf882ceb59f7cbe8cf3f64e83b1cf61762c5_curva_diaria_RES-Tipo7_curva_anual_0.51_0.38_0.35_0.43_0.57_0.43_0.48_0.76_0.72_0.99_1.06_1.09_carga_baixa Bus1=59895369827567921BT.3.4 Phases=1
~ Conn=wye Model=1 Kv=0.127 Kw=1 pf=0.92

New Load.nome_1d7d7350b8992bac93bd76e2228c4f8f4d5370658a3405c75b2ce02aa3a59faf_curva_diaria_COM-Tipo9_curva_anual_0.0_0.0_0.0_0.0_0.0_0.0_0.31_1.48_2.78_3.3_2.7_2.35_carga_baixa Bus1=59797678827526876BT.1.2 Phases=2
~ Conn=wye Model=1 Kv=0.22 Kw=1 pf=0.92

New Load.nome_1eb6f0f19805a8a869391bba886b6be957419b3ecc93e47b3f8fcc88b9ad00eb_curva_diaria_RES-Tipo1_curva_anual_0.43_0.46_0.58_0.51_0.32_0.28_0.47_0.79_0.72_1.13_1.32_0.87_carga_baixa Bus1=59729941827487035BT.1.2 Phases=2
~ Conn=wye Model=1 Kv=0.22 Kw=1 pf=0.92

New Load.nome_1eee0bce475f0b2c8f2d696c0d7c63faf2490b39167afdc47ec830936d41793c_curva_diaria_RES-Tipo1_curva_anual_0.71_0.6_0.56_0.29_0.27_0.23_0.25_0.31_0.56_1.44_1.49_1.23_carga_baixa Bus1=59749645827518582BT.1.2 Phases=2
~ Conn=wye Model=1 Kv=0.22 Kw=1 pf=0.92

New Load.nome_207e88d000c296209916cde67bdc6e115db147c59c5e27c9385eacae8e306cc5_curva_diaria_RES-Tipo1_curva_anual_1.58_1.73_2.07_1.87_1.71_1.27_1.64_2.47_3.01_3.52_2.39_0.86_carga_baixa Bus1=59732049827486480BT.1.3 Phases=2
~ Conn=wye Model=1 Kv=0.22 Kw=1 pf=0.92

New Load.nome_21489d64898a507f75966f84f291ce157e5a3a9fbf90da3bb359412c8e06ad4f_curva_diaria_RES-Tipo7_curva_anual_3.19_3.51_4.25_2.29_2.45_2.43_0.33_1.45_4.22_2.94_6.54_6.28_carga_baixa Bus1=59748424827521206BT.1.2.3 Phases=3
~ Conn=wye Model=1 Kv=0.22 Kw=1 pf=0.92

New Load.nome_21a825cf0d2b30d20f1db2095148ac5d07a8ae6dcfeb423fc0cd5b7636c77150_curva_diaria_RES-Tipo9_curva_anual_0.32_0.17_0.01_0.0_0.0_0.0_0.28_1.2_1.54_2.05_1.94_2.06_carga_baixa Bus1=59753573827512655BT.1.2.3 Phases=3
~ Conn=wye Model=1 Kv=0.22 Kw=1 pf=0.92

New Load.nome_220091630543b3ac7c68b044106fd0de711aa39affbe1227cf7b0a39e8e566b4_curva_diaria_RES-Tipo10_curva_anual_0.0_0.0_0.0_0.29_0.01_0.02_0.48_2.23_3.52_2.45_6.23_3.95_carga_baixa Bus1=59753573827512655BT.1.2.3 Phases=3
~ Conn=wye Model=1 Kv=0.22 Kw=1 pf=0.92

New Load.nome_22c21446d9eb06ba1acb5f63eeeb2ea1e95d1c4fdab3ea59e5d9c5eeef73309a_curva_diaria_COM-Tipo2_curva_anual_0.69_0.57_0.71_0.63_0.67_0.6_0.64_0.76_0.76_0.85_0.77_0.76_carga_baixa Bus1=59858273827551691BT.2.3 Phases=2
~ Conn=wye Model=1 Kv=0.22 Kw=1 pf=0.92

New Load.nome_22c8ce02b9a1a7f1b11a119455a4aab183b90a31e4835893b0517040e789b14b_curva_diaria_COM-Tipo5_curva_anual_0.29_0.13_0.15_0.14_0.11_0.1_0.22_0.3_0.34_0.4_0.4_0.46_carga_baixa Bus1=59800294827528744BT.1.3 Phases=2
~ Conn=wye Model=1 Kv=0.22 Kw=1 pf=0.92

New Load.nome_22d4756fabdf601f81664411004e557bf3253e061f59672c1120fc0d54523bab_curva_diaria_RES-Tipo1_curva_anual_0.11_0.09_0.1_0.08_0.09_0.07_0.08_0.12_0.11_0.14_0.12_0.09_carga_baixa Bus1=59889594827575340BT.1.4 Phases=1
~ Conn=wye Model=1 Kv=0.127 Kw=1 pf=0.92

New Load.nome_231d510ed3108eb5f599f3af9ef4daadbf2ace65c33408171f5e044a35704e83_curva_diaria_COM-Tipo1_curva_anual_0.33_0.37_0.2_0.11_0.04_0.04_0.04_0.05_0.18_0.19_0.16_0.18_carga_baixa Bus1=59746275827524441BT.1.2 Phases=2
~ Conn=wye Model=1 Kv=0.22 Kw=1 pf=0.92

New Load.nome_23ba4ea336381f82a0d106f1f310973a2f7f12611763d88f20ea0f0ed736b643_curva_diaria_RES-Tipo9_curva_anual_0.0_0.0_0.0_0.0_0.0_0.0_0.29_0.0_0.0_0.0_0.0_0.0_carga_baixa Bus1=59891738827575459BT.1.2 Phases=2
~ Conn=wye Model=1 Kv=0.22 Kw=1 pf=0.92

New Load.nome_23eb553f8facc16388abae9cecc8208988e4890ac0a4b84bfc8a417babaf935a_curva_diaria_RES-Tipo1_curva_anual_0.01_0.02_0.03_0.06_0.11_0.09_0.12_0.11_0.04_0.06_0.1_0.11_carga_baixa Bus1=59711598827504436BT.2.4 Phases=1
~ Conn=wye Model=1 Kv=0.127 Kw=1 pf=0.92

New Load.nome_241172c19b98062071ef0dd748cb7b0e0320995810d7ed6e9819207de8a9ead8_curva_diaria_RES-Tipo6_curva_anual_2.65_3.37_4.82_2.76_2.58_2.62_0.42_1.82_4.17_2.53_5.83_7.24_carga_baixa Bus1=59853880827547516BT.1.2.3 Phases=3
~ Conn=wye Model=1 Kv=0.22 Kw=1 pf=0.92

New Load.nome_2423f03e69ed22f468a60dc0a953911203b7e4e3d4a289355b0e773bc2e72a0d_curva_diaria_RES-Tipo4_curva_anual_2.59_3.4_4.92_2.92_2.95_4.18_0.54_1.27_4.65_3.03_6.2_5.46_carga_baixa Bus1=59715623827499769BT.1.2.3 Phases=3
~ Conn=wye Model=1 Kv=0.22 Kw=1 pf=0.92

New Load.nome_2435f8b644440fca853170d886f0ff38e7fec902c7b71480c709551263e36e74_curva_diaria_COM-Tipo1_curva_anual_5.23_4.81_5.7_4.68_4.36_2.91_3.5_4.93_3.94_0.38_0.33_0.35_carga_baixa Bus1=59712144827498977BT.1.2.3 Phases=3
~ Conn=wye Model=1 Kv=0.22 Kw=1 pf=0.92

New Load.nome_2469ff75b8c1164ef685e2239ffe76042f2b9bb5606cafd182d822fa28c9316b_curva_diaria_COM-Tipo5_curva_anual_0.07_0.13_0.2_0.07_0.05_0.04_0.15_0.29_0.14_0.1_0.16_0.21_carga_baixa Bus1=59732359827491978BT.2.3 Phases=2
~ Conn=wye Model=1 Kv=0.22 Kw=1 pf=0.92

New Load.nome_24bd29d9f5127491ad0aabcf4c8006d1df6e71f2844b4e64e1a4887adb9e564b_curva_diaria_RES-Tipo1_curva_anual_1.58_1.88_2.62_1.55_1.7_1.44_0.18_1.07_3.23_2.39_4.99_3.9_carga_baixa Bus1=59730149827510074BT.1.2 Phases=2
~ Conn=wye Model=1 Kv=0.22 Kw=1 pf=0.92

New Load.nome_24bf61fa135176245cc298e9bfaa4cb55e8c42ac40406bd8db0f1ba4f74ee6e5_curva_diaria_COM-Tipo7_curva_anual_0.0_0.0_0.19_0.42_0.48_0.31_0.51_0.82_1.13_1.39_1.17_1.12_carga_baixa Bus1=59729928827488451BT.1.2 Phases=2
~ Conn=wye Model=1 Kv=0.22 Kw=1 pf=0.92

New Load.nome_25d91d972264deac0921fddc582bc89d2968251ce3df8d31eff2fc9c91565895_curva_diaria_RES-Tipo3_curva_anual_2.11_1.67_2.37_1.82_1.83_1.55_1.85_2.58_3.03_3.43_2.97_2.58_carga_baixa Bus1=59847206827542040BT.1.2 Phases=2
~ Conn=wye Model=1 Kv=0.22 Kw=1 pf=0.92

New Load.nome_25f6f4b849bbfd9aed9091039958d8e84c0a92143d2b10c067399cc1914f6e00_curva_diaria_RES-Tipo5_curva_anual_0.01_0.02_0.02_0.0_0.0_0.01_0.01_0.02_0.01_0.03_0.03_0.01_carga_baixa Bus1=59729065827502274BT.1.2.3 Phases=3
~ Conn=wye Model=1 Kv=0.22 Kw=1 pf=0.92

New Load.nome_26349e8ddf9cf01bd0e7b13fa3c518253a3e8486da9577a35f0cb240c1dc2b6c_curva_diaria_RES-Tipo7_curva_anual_0.0_0.7_0.67_0.59_0.64_0.81_1.37_1.61_1.37_1.3_1.25_1.3_carga_baixa Bus1=59730142827533953BT.1.2 Phases=2
~ Conn=wye Model=1 Kv=0.22 Kw=1 pf=0.92

New Load.nome_266bf993c35a6cbce632544579699276d5d3079e244fb0c4f8ed41cf5cd68436_curva_diaria_RES-Tipo1_curva_anual_2.17_1.69_2.16_1.94_1.96_1.61_1.84_2.58_2.75_3.3_2.96_3.02_carga_baixa Bus1=59751075827514520BT.1.2.3 Phases=3
~ Conn=wye Model=1 Kv=0.22 Kw=1 pf=0.92

New Load.nome_266ee9422e53fa79d221b1f04410a687399331d853ac0bc38d6d4072a9a66067_curva_diaria_RES-Tipo4_curva_anual_0.34_0.72_1.05_1.12_1.21_0.78_0.54_0.22_0.36_0.45_0.22_0.26_carga_baixa Bus1=59753547827513289BT.1.2.3 Phases=3
~ Conn=wye Model=1 Kv=0.22 Kw=1 pf=0.92

New Load.nome_26d1b5558ba08389384f62e2410a05a0f988e2e1b8d2a1d8c65276321388c86b_curva_diaria_RES-Tipo1_curva_anual_2.09_1.72_2.22_2.09_2.25_2.06_2.13_2.55_2.54_2.66_2.38_2.49_carga_baixa Bus1=59747867827520773BT.1.2.3 Phases=3
~ Conn=wye Model=1 Kv=0.22 Kw=1 pf=0.92

New Load.nome_277ebc72d87377b99343edb2d5793e8c658a533e44951e0db6c5e955c5fbc244_curva_diaria_RES-Tipo1_curva_anual_0.03_0.24_0.88_1.04_1.01_0.55_0.0_0.0_0.0_0.0_0.0_0.0_carga_baixa Bus1=59739375827507103BT.1.3 Phases=2
~ Conn=wye Model=1 Kv=0.22 Kw=1 pf=0.92

New Load.nome_279a7e0ef9730efcfd97c71b9f08f9d8bb7c29a1df26ed9a4a73e9c82eb12865_curva_diaria_COM-Tipo1_curva_anual_0.75_0.08_0.01_0.17_0.48_0.5_0.5_0.43_0.73_0.8_0.52_0.57_carga_baixa Bus1=59736973827515875BT.1.2 Phases=2
~ Conn=wye Model=1 Kv=0.22 Kw=1 pf=0.92

New Load.nome_289075f76d29e89388f537c506d005393f340c6dbc1ce4683be32eb1e1dcec84_curva_diaria_COM-Tipo2_curva_anual_7.58_6.16_7.72_6.88_7.46_6.27_6.49_7.8_8.46_12.64_9.56_15.0_carga_baixa Bus1=59879346827569318BT.1.2.3 Phases=3
~ Conn=wye Model=1 Kv=0.22 Kw=1 pf=0.92

New Load.nome_289ef987efaf6510603b5501a61bef99852bc0213e4ea3a61be3f3376dfc821d_curva_diaria_RES-Tipo1_curva_anual_0.46_0.39_0.52_0.46_0.47_0.39_0.46_0.62_0.66_0.76_0.67_0.68_carga_baixa Bus1=59891656827572897BT.1.4 Phases=1
~ Conn=wye Model=1 Kv=0.127 Kw=1 pf=0.92

New Load.nome_28e3a4812d5cdd6fbc0c81630cb9d0bfbcf76530d7e66c6d663ed22d84d3462b_curva_diaria_RES-Tipo2_curva_anual_0.0_0.0_0.0_0.0_0.0_0.0_0.0_0.0_0.0_0.0_0.0_0.0_carga_baixa Bus1=3089728IS.1.2.3 Phases=3
~ Conn=wye Model=1 Kv=0.22 Kw=1 pf=0.92

New Load.nome_298c2dc153087dd8b322d273701680b54d404a0811276467696bf286e2deed91_curva_diaria_RES-Tipo6_curva_anual_0.5_0.42_0.64_0.48_0.49_0.43_0.43_0.52_0.59_0.67_0.6_0.55_carga_baixa Bus1=59857227827553592BT.1.3 Phases=2
~ Conn=wye Model=1 Kv=0.22 Kw=1 pf=0.92

New Load.nome_29b7a21f7b1050c271cd7b03a663c7b57ea8daadacea25941617c56427fe30fd_curva_diaria_RES-Tipo4_curva_anual_0.53_0.55_0.73_0.64_0.75_0.57_0.84_1.21_1.34_1.55_1.23_1.03_carga_baixa Bus1=59753573827512655BT.1.2.3 Phases=3
~ Conn=wye Model=1 Kv=0.22 Kw=1 pf=0.92

New Load.nome_2a4738900904228a0630c892f0896fb3a21f729e695eb36c02c604412933cdd6_curva_diaria_RES-Tipo5_curva_anual_1.68_0.96_0.77_0.0_0.0_0.0_0.0_0.0_0.0_0.0_0.0_0.0_carga_baixa Bus1=59801017827529282BT.1.2 Phases=2
~ Conn=wye Model=1 Kv=0.22 Kw=1 pf=0.92

New Load.nome_2b256541378d70e72383387032720288cd34a7594cab404e555382d781152d5c_curva_diaria_RES-Tipo6_curva_anual_0.18_0.15_0.15_0.05_0.13_0.13_0.13_0.15_0.17_0.25_0.25_0.3_carga_baixa Bus1=59735697827503671BT.1.2 Phases=2
~ Conn=wye Model=1 Kv=0.22 Kw=1 pf=0.92

New Load.nome_2b6cf0072675dab808176d2076df091de648904e1b601979e81eea02712e8c10_curva_diaria_RES-Tipo3_curva_anual_0.56_0.44_0.58_0.44_0.47_0.42_0.47_0.67_0.75_0.97_0.87_0.87_carga_baixa Bus1=59753573827512655BT.1.2.3 Phases=3
~ Conn=wye Model=1 Kv=0.22 Kw=1 pf=0.92

New Load.nome_2b93d818e1045ab64cbc8c3cd1ee8a6933d77c6aebe8fdd5c386dca07885d8f8_curva_diaria_RES-Tipo8_curva_anual_0.3_0.23_0.02_0.0_2.41_1.94_0.32_1.15_2.57_2.25_4.68_4.09_carga_baixa Bus1=59753573827512655BT.1.2.3 Phases=3
~ Conn=wye Model=1 Kv=0.22 Kw=1 pf=0.92

New Load.nome_2be35931d8eb1abfd07b33338cd1bfa394e11e71f38667baf0bfda6a720ab71d_curva_diaria_RES-Tipo9_curva_anual_0.0_0.0_0.0_0.0_0.0_0.0_0.0_0.5_0.48_1.65_2.15_1.36_carga_baixa Bus1=59895706827567293BT.1.3 Phases=2
~ Conn=wye Model=1 Kv=0.22 Kw=1 pf=0.92

New Load.nome_2c35877d03c70e5baac0c849a02af47ec2289bc0ba4f9ed5f50f334fa5ac3f82_curva_diaria_COM-Tipo6_curva_anual_0.08_0.08_0.1_0.12_0.14_0.11_0.16_0.3_0.43_0.64_0.53_0.53_carga_baixa Bus1=59728475827487757BT.1.2 Phases=2
~ Conn=wye Model=1 Kv=0.22 Kw=1 pf=0.92

New Load.nome_2c776f0920d6b9e86508ed76a0d8086c36de2310ade3fe30b89d24bd5b26a09f_curva_diaria_RES-Tipo8_curva_anual_0.0_0.0_0.0_0.66_0.28_0.22_0.28_0.41_0.45_0.57_0.4_0.24_carga_baixa Bus1=59809337827507909BT.2.3 Phases=2
~ Conn=wye Model=1 Kv=0.22 Kw=1 pf=0.92

New Load.nome_2c8aa8aa32e2a4ddfc0cfbffb994464119dab7ead524fcaef0bc359b30013902_curva_diaria_RES-Tipo6_curva_anual_0.01_0.01_0.02_0.03_0.04_0.06_0.05_0.05_0.04_0.04_0.04_0.03_carga_baixa Bus1=59733019827509323BT.1.2 Phases=2
~ Conn=wye Model=1 Kv=0.22 Kw=1 pf=0.92

New Load.nome_2ccce5036f5c4e8fafcca25bc4f905f88ba7518092414c97d22c28b831ada698_curva_diaria_RES-Tipo10_curva_anual_1.66_1.62_1.93_1.51_1.56_1.41_1.54_2.42_1.94_0.0_4.16_2.47_carga_baixa Bus1=59752489827501762BT.1.2.3 Phases=3
~ Conn=wye Model=1 Kv=0.22 Kw=1 pf=0.92

New Load.nome_2d00395cd256ad028219fae20c6065de32a48853a0bfb16e84f61ff2c2f0d60c_curva_diaria_RES-Tipo2_curva_anual_0.0_0.0_0.0_0.0_0.0_0.0_0.0_0.0_0.0_0.0_0.0_0.0_carga_baixa Bus1=4289550IS.1.3 Phases=2
~ Conn=wye Model=1 Kv=0.22 Kw=1 pf=0.92

New Load.nome_2d57575ba9d5796176eb1153e320b8cef9641146163a0ba307b3e6aa569d9da3_curva_diaria_RES-Tipo6_curva_anual_0.0_0.0_0.0_0.0_0.0_0.0_0.29_0.64_0.68_0.76_0.68_0.65_carga_baixa Bus1=59895436827568050BT.1.2 Phases=2
~ Conn=wye Model=1 Kv=0.22 Kw=1 pf=0.92

New Load.nome_2d81ab12f6c0f33d64408c1efd0eb9925708948c0b2e2d98b8bbd6e328d85a52_curva_diaria_RES-Tipo10_curva_anual_0.22_0.06_0.0_0.0_0.0_0.0_0.0_0.0_0.42_0.45_0.43_0.41_carga_baixa Bus1=59731751827528810BT.1.3 Phases=2
~ Conn=wye Model=1 Kv=0.22 Kw=1 pf=0.92

New Load.nome_2dbfbc69b4733eff065e318a8a9ee80f6c86e51fa4c3923e283c5d32faff94c4_curva_diaria_RES-Tipo10_curva_anual_0.0_0.0_0.0_0.0_0.0_0.8_0.92_1.1_1.84_1.76_1.59_1.54_carga_baixa Bus1=59735446827503469BT.2.3 Phases=2
~ Conn=wye Model=1 Kv=0.22 Kw=1 pf=0.92

New Load.nome_2e4d27f18fe863b2354820f3cd393a049732906f4cb373c321459cfb611d49fd_curva_diaria_RES-Tipo5_curva_anual_0.03_0.05_0.19_0.14_0.06_0.03_0.03_0.04_0.05_0.05_0.05_0.05_carga_baixa Bus1=59891656827572971BT.1.2 Phases=2
~ Conn=wye Model=1 Kv=0.22 Kw=1 pf=0.92

New Load.nome_2e8ab067a66e419bdf44f15caacb43b24a84dab3a8534a07ea17a733d6c7464b_curva_diaria_RES-Tipo1_curva_anual_1.26_0.84_1.03_0.97_1.02_0.77_0.93_1.33_1.33_1.24_1.54_1.71_carga_baixa Bus1=59886836827565764BT.2.3 Phases=2
~ Conn=wye Model=1 Kv=0.22 Kw=1 pf=0.92

New Load.nome_2e9a12943710923d744035113acb83f18d9cda497887ed951c1baf98c6971994_curva_diaria_RES-Tipo10_curva_anual_0.0_0.0_0.0_0.0_0.1_0.34_0.61_0.49_0.55_0.8_0.64_0.65_carga_baixa Bus1=59797696827526821BT.1.3.4 Phases=2
~ Conn=wye Model=1 Kv=0.22 Kw=1 pf=0.92

New Load.nome_2ed396aa945ab76597b85750bb3e39b19e98f18eb904775dbd72ff89b147807e_curva_diaria_COM-Tipo3_curva_anual_3.93_3.31_4.18_3.98_4.48_3.78_4.35_5.49_5.34_6.19_5.77_5.65_carga_baixa Bus1=59736610827516792BT.1.2 Phases=2
~ Conn=wye Model=1 Kv=0.22 Kw=1 pf=0.92

New Load.nome_2f21ebcb9fd88bb006fcf8a8e9f2592e9872b496cb755b19c1373e425699b493_curva_diaria_RES-Tipo4_curva_anual_0.32_0.17_0.0_0.0_0.0_0.0_0.0_0.0_0.0_0.0_0.0_0.0_carga_baixa Bus1=59730444827532285BT.1.2.3 Phases=3
~ Conn=wye Model=1 Kv=0.22 Kw=1 pf=0.92

New Load.nome_2fc8a94d02e7c98d5defddc6f8f02835f8643b7bb9c6b9b8459082b0283f1c93_curva_diaria_RES-Tipo5_curva_anual_0.6_0.61_0.72_0.57_0.51_0.49_0.67_0.79_0.8_1.39_1.19_1.07_carga_baixa Bus1=59728952827489109BT.1.2 Phases=2
~ Conn=wye Model=1 Kv=0.22 Kw=1 pf=0.92

New Load.nome_2fe06d5987d8698ec565bab7a0bbb803465d1d43da3812d8fe3cd2e5e1c987f8_curva_diaria_RES-Tipo4_curva_anual_1.68_1.36_1.9_1.9_1.77_1.53_1.82_2.37_2.49_2.76_2.4_2.33_carga_baixa Bus1=59728031827509303BT.1.2.3 Phases=3
~ Conn=wye Model=1 Kv=0.22 Kw=1 pf=0.92

New Load.nome_2fe725e0ea4ce89002d5ba97498fc28db7eaaac652944b1c07ee1b6528166c9c_curva_diaria_RES-Tipo6_curva_anual_0.91_0.8_1.05_0.82_0.83_0.71_0.84_1.35_1.67_1.94_1.58_1.4_carga_baixa Bus1=59885813827568848BT.1.2.3 Phases=3
~ Conn=wye Model=1 Kv=0.22 Kw=1 pf=0.92

New Load.nome_3059f280bb582f754e13f82b25efb30b1d72debc9d1b2e6925b2d9f182c81cdf_curva_diaria_RES-Tipo3_curva_anual_0.92_0.82_1.02_0.88_0.93_0.85_0.97_1.14_1.08_1.27_1.12_0.96_carga_baixa Bus1=59753573827512655BT.1.2.3 Phases=3
~ Conn=wye Model=1 Kv=0.22 Kw=1 pf=0.92

New Load.nome_306bcc4918e300374618608d4bbfee60909b2e105dab76cdaa5a0579f6e9d426_curva_diaria_RES-Tipo5_curva_anual_0.2_0.19_0.22_0.21_0.23_0.19_0.21_0.3_0.36_0.42_0.38_0.26_carga_baixa Bus1=59857336827554322BT.1.3 Phases=2
~ Conn=wye Model=1 Kv=0.22 Kw=1 pf=0.92

New Load.nome_3076caff3278b780294cca88c1cc8ea4a7fe670126d1925094edffa6bbff40d3_curva_diaria_RES-Tipo7_curva_anual_2.36_1.96_2.53_2.23_2.19_1.91_2.43_3.02_3.02_3.44_3.1_2.92_carga_baixa Bus1=59753433827512446BT.1.2.3 Phases=3
~ Conn=wye Model=1 Kv=0.22 Kw=1 pf=0.92

New Load.nome_308ff0323cc90c07d1f193e92c8ade4baebc888b2ce5e60e5115238354d343b1_curva_diaria_RES-Tipo1_curva_anual_1.74_1.62_2.12_1.8_1.71_1.31_1.67_2.38_2.65_3.28_3.01_2.98_carga_baixa Bus1=59735715827503578BT.1.2.3 Phases=3
~ Conn=wye Model=1 Kv=0.22 Kw=1 pf=0.92

New Load.nome_30a433366869b678b16a7386be39b23255118c41ffcd955911a21461554057e5_curva_diaria_RES-Tipo7_curva_anual_0.0_0.16_0.29_0.24_0.23_0.18_0.19_0.24_0.23_0.24_0.24_0.28_carga_baixa Bus1=59883990827575169BT.1.2 Phases=2
~ Conn=wye Model=1 Kv=0.22 Kw=1 pf=0.92

New Load.nome_30e3784615e929f68b97fb7a4e78fc16e0a0a98d95b6d19293c1245d42fa55d2_curva_diaria_COM-Tipo1_curva_anual_2.63_2.04_2.27_1.25_1.37_1.24_1.37_1.6_1.58_1.65_1.47_1.49_carga_baixa Bus1=59854149827548205BT.1.2.3 Phases=3
~ Conn=wye Model=1 Kv=0.22 Kw=1 pf=0.92

New Load.nome_30efbfb8e4d256a3fe439d4ec86ccaa20e1304f50b5108e2139ebf1c7cfbda6d_curva_diaria_COM-Tipo1_curva_anual_0.24_0.25_0.28_0.24_0.24_0.2_0.25_0.33_0.35_0.47_0.57_0.83_carga_baixa Bus1=59718339827510975BT.1.2 Phases=2
~ Conn=wye Model=1 Kv=0.22 Kw=1 pf=0.92

New Load.nome_311f7c91e19064fa4d8c12074942bf8920a562cb4ebb0a3b4f13977a23812148_curva_diaria_RES-Tipo1_curva_anual_0.09_0.0_0.0_0.0_0.0_0.0_0.04_0.11_0.06_0.13_0.0_0.0_carga_baixa Bus1=59742727827514394BT.1.2 Phases=2
~ Conn=wye Model=1 Kv=0.22 Kw=1 pf=0.92

New Load.nome_312ccd165dc13313d8388d9373cabd19c1fd23c8ca3c2c7db07b81985d3ede10_curva_diaria_COM-Tipo1_curva_anual_0.57_0.5_0.64_0.57_0.58_0.51_0.56_0.7_0.84_0.98_0.85_0.82_carga_baixa Bus1=59748240827523799BT.1.2 Phases=2
~ Conn=wye Model=1 Kv=0.22 Kw=1 pf=0.92

New Load.nome_312f10d3eb33c50ee3c01352cc4c8efceedae9ab3fadc023efd18240dee94d0c_curva_diaria_RES-Tipo1_curva_anual_0.55_0.67_0.92_0.94_0.95_0.7_0.75_1.03_1.19_1.47_1.3_1.1_carga_baixa Bus1=59729293827488372BT.1.2 Phases=2
~ Conn=wye Model=1 Kv=0.22 Kw=1 pf=0.92

New Load.nome_31517bbae8478b49219fa2dc202afb016c4e8f736d55516469778401919ae3f5_curva_diaria_RES-Tipo8_curva_anual_0.0_0.0_0.0_0.68_0.3_0.28_0.37_0.58_0.51_0.47_0.33_0.3_carga_baixa Bus1=59730136827532302BT.1.2 Phases=2
~ Conn=wye Model=1 Kv=0.22 Kw=1 pf=0.92

New Load.nome_318c15032b1dd23c2e7d1a54d6da2b03031896c1c91c8263bc22b949de08f8d2_curva_diaria_RES-Tipo2_curva_anual_3.36_4.29_5.73_3.44_3.77_3.54_0.5_2.0_4.92_3.32_6.92_7.46_carga_baixa Bus1=59703014827492350BT.1.2.3 Phases=3
~ Conn=wye Model=1 Kv=0.22 Kw=1 pf=0.92

New Load.nome_31d2f0f3fe7bf29097c0741db79c2a00f4681164e43f9b889fc620b004f07123_curva_diaria_COM-Tipo1_curva_anual_0.04_0.04_0.05_0.04_0.03_0.04_0.03_0.06_0.05_0.05_0.04_0.04_carga_baixa Bus1=59721060827499694BT.1.2 Phases=2
~ Conn=wye Model=1 Kv=0.22 Kw=1 pf=0.92

New Load.nome_31e250f4434a9bec93040746a72308ca23f2cc3ac08d80b15d67a3f2aff4c3fd_curva_diaria_RES-Tipo3_curva_anual_0.57_0.69_0.72_0.73_0.8_0.68_0.85_1.3_1.95_2.89_2.06_1.26_carga_baixa Bus1=59752307827512922BT.1.2.3 Phases=3
~ Conn=wye Model=1 Kv=0.22 Kw=1 pf=0.92

New Load.nome_3240577c9616783a1873da4a81a4d036ab7f5a6a30f6355e7ee565ee2b5fc856_curva_diaria_RES-Tipo4_curva_anual_0.21_0.16_0.21_0.23_0.21_0.17_0.19_0.2_0.46_1.12_0.94_0.94_carga_baixa Bus1=59719588827501809BT.1.2.3 Phases=3
~ Conn=wye Model=1 Kv=0.22 Kw=1 pf=0.92

New Load.nome_337c740ccb02dd06f9f727422afbe8bea67a7b23f050c8b99c1d75ecfecb7ff2_curva_diaria_RES-Tipo9_curva_anual_0.0_0.0_0.0_0.0_0.0_0.0_0.0_0.0_0.0_3.34_1.98_2.27_carga_baixa Bus1=59859573827550906BT.1.2 Phases=2
~ Conn=wye Model=1 Kv=0.22 Kw=1 pf=0.92

New Load.nome_338df31bc76cf4a1c4a0dbaac95cf5dc8bc35f772df74217ebad511e8cef5d06_curva_diaria_COM-Tipo3_curva_anual_2.43_1.97_2.49_2.21_1.95_1.37_1.75_2.64_3.34_4.08_3.68_3.44_carga_baixa Bus1=59859756827550961BT.1.2 Phases=2
~ Conn=wye Model=1 Kv=0.22 Kw=1 pf=0.92

New Load.nome_339ff3f9232305b03194f89b28f42a155dfa97e448b39b2ca297b4a850ca5f31_curva_diaria_RES-Tipo4_curva_anual_0.39_0.38_0.47_0.4_0.42_0.32_0.39_0.55_0.54_0.58_0.52_0.48_carga_baixa Bus1=59800875827529029BT.1.3 Phases=2
~ Conn=wye Model=1 Kv=0.22 Kw=1 pf=0.92

New Load.nome_33d579898a374babe6be949ac5ed17bc7c1f45f5b7bd1780784a01fef9c0a480_curva_diaria_RES-Tipo4_curva_anual_3.42_2.28_2.54_2.24_2.27_1.94_1.97_2.8_2.8_2.92_3.18_4.54_carga_baixa Bus1=59902480827569393BT.1.2.3 Phases=3
~ Conn=wye Model=1 Kv=0.22 Kw=1 pf=0.92

New Load.nome_34058d9d09a40adbdd860beffd3f3cba4353cbe2d660892748b5092a6b3a64b2_curva_diaria_RES-Tipo1_curva_anual_1.08_0.79_0.94_1.05_1.14_0.82_0.93_1.42_1.88_2.3_1.92_1.66_carga_baixa Bus1=59732235827533523BT.1.2 Phases=2
~ Conn=wye Model=1 Kv=0.22 Kw=1 pf=0.92

New Load.nome_3447c46fb926224c6ec0710a00bb0a983f2d4357491777d3a5e0d001264ec33d_curva_diaria_RES-Tipo1_curva_anual_0.82_0.72_0.81_0.73_0.7_0.53_0.64_0.99_1.19_1.41_1.51_1.79_carga_baixa Bus1=59742961827514662BT.1.2 Phases=2
~ Conn=wye Model=1 Kv=0.22 Kw=1 pf=0.92

New Load.nome_3474a43ad37f2dba23ae384f88ae7e3f4a251040e241d1a772425bc6878d0624_curva_diaria_RES-Tipo1_curva_anual_1.42_1.06_1.25_1.27_1.27_1.0_1.23_1.73_2.2_2.55_2.26_2.11_carga_baixa Bus1=59731081827534167BT.1.2 Phases=2
~ Conn=wye Model=1 Kv=0.22 Kw=1 pf=0.92

New Load.nome_34e4e4d46ceb0aeb0b8a8ed5f5b105a34bab000b8501c93e229db1c4dc2088f0_curva_diaria_COM-Tipo8_curva_anual_1.71_0.0_0.31_0.61_1.13_1.27_1.83_2.59_1.71_2.29_1.87_2.22_carga_baixa Bus1=59714332827506474BT.1.2.3 Phases=3
~ Conn=wye Model=1 Kv=0.22 Kw=1 pf=0.92

New Load.nome_34f9c98b94d7f50d09837d175015bcaa9b94ddb4c68273e4a799ab53dddeec23_curva_diaria_RES-Tipo1_curva_anual_0.06_0.07_0.1_0.08_0.09_0.07_0.08_0.11_0.11_0.14_0.12_0.12_carga_baixa Bus1=59727836827509410BT.1.3 Phases=2
~ Conn=wye Model=1 Kv=0.22 Kw=1 pf=0.92

New Load.nome_3506786524394ed472e92439c29e6a2a3be6be75172ad4785666dc153b4d2fe3_curva_diaria_RES-Tipo8_curva_anual_0.15_0.16_0.22_0.18_0.18_0.17_0.18_0.21_0.33_0.46_0.63_0.54_carga_baixa Bus1=59731590827533805BT.1.2.4 Phases=2
~ Conn=wye Model=1 Kv=0.22 Kw=1 pf=0.92

New Load.nome_358c0a0785cb60e0a15ea05484ed433bc922186ca8685fdd14f42064a98400b7_curva_diaria_RES-Tipo1_curva_anual_11.18_7.15_7.8_6.64_6.03_4.89_6.11_9.05_9.96_11.5_10.96_9.32_carga_baixa Bus1=59901395827568300BT.1.2.3 Phases=3
~ Conn=wye Model=1 Kv=0.22 Kw=1 pf=0.92

New Load.nome_35fa84f815256043a6b68c9cf03b4f8f02714295fed9309491a684debc73bef5_curva_diaria_RES-Tipo4_curva_anual_0.0_0.0_0.36_1.01_0.85_0.83_1.12_1.75_2.44_2.96_2.34_0.4_carga_baixa Bus1=59727533827507132BT.1.2.3 Phases=3
~ Conn=wye Model=1 Kv=0.22 Kw=1 pf=0.92

New Load.nome_3619b81561d793b6341f45add9bf5aac8145a86f2adfbf41cd4796fe83adc429_curva_diaria_RES-Tipo1_curva_anual_0.94_0.86_0.85_0.86_0.93_0.77_0.98_1.39_1.67_1.95_1.6_1.79_carga_baixa Bus1=59863200827542266BT.1.2 Phases=2
~ Conn=wye Model=1 Kv=0.22 Kw=1 pf=0.92

New Load.nome_36224cacb24c618e3efb04dcf1d41983d86140209316e688ab7af841e581fb6f_curva_diaria_RES-Tipo1_curva_anual_0.0_0.0_0.34_0.57_0.63_0.51_0.58_0.79_0.82_0.95_0.88_0.88_carga_baixa Bus1=59885743827577348BT.2.4 Phases=1
~ Conn=wye Model=1 Kv=0.127 Kw=1 pf=0.92

New Load.nome_3665fdf75de715dd028f4b31779d4ee743fc7af14576ad0bd4ec0c228aee7eb6_curva_diaria_RES-Tipo3_curva_anual_0.11_0.22_0.43_0.2_0.21_0.39_1.76_4.28_3.25_0.52_0.38_0.65_carga_baixa Bus1=59753573827512655BT.1.2.3 Phases=3
~ Conn=wye Model=1 Kv=0.22 Kw=1 pf=0.92

New Load.nome_36c0c8e6446ab4d993dd19be3e2ba415ef7a1eec886142f6b1ebb4bdaf9877b7_curva_diaria_RES-Tipo10_curva_anual_0.0_0.0_0.0_0.0_0.0_0.0_0.0_0.0_0.66_0.56_0.55_0.64_carga_baixa Bus1=59857773827551859BT.1.3 Phases=2
~ Conn=wye Model=1 Kv=0.22 Kw=1 pf=0.92

New Load.nome_370174d901522a0efb46fa49bc74ab5a9874979afc7c7a1c8d57ef263a294441_curva_diaria_RES-Tipo9_curva_anual_0.39_0.0_0.0_0.0_0.0_0.0_0.0_0.0_1.68_1.56_1.87_3.21_carga_baixa Bus1=59727569827509320BT.1.2 Phases=2
~ Conn=wye Model=1 Kv=0.22 Kw=1 pf=0.92

New Load.nome_373431e30c19c8dba9c87887d7d2f185b58fb79c1012912eeeecf925a0308743_curva_diaria_COM-Tipo1_curva_anual_0.05_0.03_0.05_0.06_0.05_0.05_0.06_0.06_0.08_0.05_0.02_0.04_carga_baixa Bus1=59730039827486854BT.1.2 Phases=2
~ Conn=wye Model=1 Kv=0.22 Kw=1 pf=0.92

New Load.nome_379ce9166df264485ccbb07e3915dee3dc5b4caaf2cde01630b6d0e7213b584d_curva_diaria_RES-Tipo2_curva_anual_0.0_0.0_0.0_0.0_0.0_0.0_0.0_0.0_0.0_0.0_0.0_0.0_carga_baixa Bus1=4354522IS.1.3 Phases=2
~ Conn=wye Model=1 Kv=0.22 Kw=1 pf=0.92

New Load.nome_38505f48fa7c385c233955f96178e084945b99abc5b0313bbea27df8cc1e3579_curva_diaria_RES-Tipo1_curva_anual_0.0_0.0_0.0_0.0_0.0_0.0_0.0_0.0_0.0_0.0_0.0_0.0_carga_baixa Bus1=300207IS.1.2.3 Phases=3
~ Conn=wye Model=1 Kv=0.22 Kw=1 pf=0.92

New Load.nome_385d74e382eb1f9533c47189722632305be22d409657c47d5428311bff0ad707_curva_diaria_RES-Tipo7_curva_anual_0.86_0.64_0.6_0.6_0.75_0.56_0.83_1.26_1.22_1.42_1.34_1.22_carga_baixa Bus1=59728085827509237BT.1.2 Phases=2
~ Conn=wye Model=1 Kv=0.22 Kw=1 pf=0.92

New Load.nome_390c5e5d8735d0aceac73c8b4e8b4597ab8c9e136c55c60c57cb06effd951cf8_curva_diaria_RES-Tipo3_curva_anual_0.17_0.22_0.36_0.16_0.2_0.24_0.26_0.25_0.75_1.38_0.59_0.66_carga_baixa Bus1=59753573827512655BT.1.2.3 Phases=3
~ Conn=wye Model=1 Kv=0.22 Kw=1 pf=0.92

New Load.nome_3996519f62befc03c3e25fc94867b67c854a98c74091caecbc213920db076578_curva_diaria_RES-Tipo1_curva_anual_0.07_0.06_0.08_0.08_0.08_0.06_0.06_0.08_0.08_0.08_0.07_0.1_carga_baixa Bus1=59800294827529501BT.1.2.3 Phases=3
~ Conn=wye Model=1 Kv=0.22 Kw=1 pf=0.92

New Load.nome_399f1b28f9500789abc56e02e16e2fd76673af8876d85ff97a5c759aa90db95d_curva_diaria_COM-Tipo3_curva_anual_0.26_0.33_0.44_0.31_0.33_0.27_0.23_0.44_0.43_0.65_0.58_0.35_carga_baixa Bus1=59732675827492589BT.1.2 Phases=2
~ Conn=wye Model=1 Kv=0.22 Kw=1 pf=0.92

New Load.nome_3ab6a1c85aa11ed2aadd68b54ccd1c8d3dc0898085f03c64c5fdf7077a564cad_curva_diaria_RES-Tipo9_curva_anual_0.61_0.41_0.54_0.39_0.0_0.48_0.37_0.46_0.41_0.42_0.47_0.58_carga_baixa Bus1=59753573827512655BT.1.2.3 Phases=3
~ Conn=wye Model=1 Kv=0.22 Kw=1 pf=0.92

New Load.nome_3b2f75b5cd1035db5315bd72a4148a482e5e69d50e5f3525d3282d6d4541cc2f_curva_diaria_RES-Tipo4_curva_anual_0.48_0.35_0.47_0.38_0.41_0.34_0.48_0.73_1.01_1.54_1.52_0.79_carga_baixa Bus1=59753573827512655BT.1.2.3 Phases=3
~ Conn=wye Model=1 Kv=0.22 Kw=1 pf=0.92

New Load.nome_3c16debab719ded6214480dd236c4fa3fb81039b1da3ef9b344b8924d8294e92_curva_diaria_COM-Tipo1_curva_anual_3.02_2.29_2.91_2.72_2.42_1.94_2.82_3.93_4.3_4.98_4.35_3.92_carga_baixa Bus1=59744944827505607BT.1.2.3 Phases=3
~ Conn=wye Model=1 Kv=0.22 Kw=1 pf=0.92

New Load.nome_3c191f3bbba84b635bd192a34c7e64e56c7e23c41b35c297bd993582bead1c08_curva_diaria_RES-Tipo4_curva_anual_10.48_12.05_15.63_9.06_9.64_9.75_1.31_5.33_13.32_9.24_20.29_20.88_carga_baixa Bus1=59753232827508906BT.1.2.3 Phases=3
~ Conn=wye Model=1 Kv=0.22 Kw=1 pf=0.92

...